/*--------------------------------*- C++ -*----------------------------------*\
| =========                 |                                                 |
| \\      /  F ield         | foam-extend: Open Source CFD                    |
|  \\    /   O peration     | Version:     4.0                                |
|   \\  /    A nd           | Web:         http://www.foam-extend.org         |
|    \\/     M anipulation  |                                                 |
\*---------------------------------------------------------------------------*/
FoamFile
{
    version     2.0;
    format      ascii;
    class       polyBoundaryMesh;
    location    "constant/polyMesh";
    object      boundary;
}
// * * * * * * * * * * * * * * * * * * * * * * * * * * * * * * * * * * * * * //

3
(
    fixedWall
    {
        type            wall;
	physicalType    wall;
        nFaces          1536;
        startFace       23552;
    }
    inlet
    {
        type            patch;
	physicalType    patch;
        nFaces          256;
        startFace       25088;
    }
    outlet
    {
        type            wall;
	physicalType    wall;
        nFaces          256;
        startFace       25344;
    }
)


// ************************************************************************* //
