/*--------------------------------*- C++ -*----------------------------------*\
| =========                 |                                                 |
| \\      /  F ield         | foam-extend: Open Source CFD                    |
|  \\    /   O peration     | Version:     4.0                                |
|   \\  /    A nd           | Web:         http://www.foam-extend.org         |
|    \\/     M anipulation  |                                                 |
\*---------------------------------------------------------------------------*/
FoamFile
{
    version     2.0;
    format      ascii;
    class       polyBoundaryMesh;
    location    "constant/polyMesh";
    object      boundary;
}
// * * * * * * * * * * * * * * * * * * * * * * * * * * * * * * * * * * * * * //

6
(
    inlet
    {
        type            cyclic;
        nFaces          30;
        startFace       3006;
	matchTolerance  0.0001;
	neighbourPatch  outlet;
    }
    outlet
    {
        type            cyclic;
        nFaces          30;
        startFace       3036;
	matchTolerance  0.0001;
	neighbourPatch  inlet;
    }
    top
    {
        type            cyclic;
        nFaces          40;
        startFace       3066;
	matchTolerance  0.0001;
	neighbourPatch  bottom;
    }
    bottom
    {
        type            cyclic;
        nFaces          40;
        startFace       3106;
	matchTolerance  0.0001;
	neighbourPatch  top;
    }
    left
    {
        type            cyclic;
        nFaces          600;
        startFace       3146;
	neighbourPatch  right;
    }
    right
    {
        type            cyclic;
        nFaces          600;
        startFace       3746;
	neighbourPatch  left;
    }
)


// ************************************************************************* //
