/*--------------------------------*- C++ -*----------------------------------*\
| =========                 |                                                 |
| \\      /  F ield         | foam-extend: Open Source CFD                    |
|  \\    /   O peration     | Version:     4.0                                |
|   \\  /    A nd           | Web:         http://www.foam-extend.org         |
|    \\/     M anipulation  |                                                 |
\*---------------------------------------------------------------------------*/
FoamFile
{
    version     2.0;
    format      ascii;
    class       volScalarField;
    location    "0";
    object      p;
}
// * * * * * * * * * * * * * * * * * * * * * * * * * * * * * * * * * * * * * //

dimensions      [1 -1 -2 0 0 0 0];

internalField   uniform 1;
// #include "init/internalp"

boundaryField
{
  left
    {
      type fixedValue;//cyclic;//Slip;//symmetryPlane;
      value uniform 1;
    }
  right
    {
      type fixedValue;//cyclic;//Slip;//symmetryPlane;
      value uniform 1;
    }
  top
    {
      type fixedValue;//cyclic;//Slip;//symmetryPlane;
      value uniform 1;
    }
  bottom
    {
      type fixedValue;//cyclic;//Slip;//symmetryPlane;
      value uniform 1;
    }
  inbound
    {
      type cyclic;
      //value uniform 1;
      /*type fixedValue;
      //value uniform 3;
      //type slip; 
      */
    }
    outbound
    {
      type cyclic;
      //value uniform 3;//slip;
    }
    defaultFaces
    {
      type            empty;//slip;//wall;
    }
}


// ************************************************************************* //
