/*--------------------------------*- C++ -*----------------------------------*\
| =========                 |                                                 |
| \\      /  F ield         | OpenFOAM: The Open Source CFD Toolbox           |
|  \\    /   O peration     | Version:  5                                     |
|   \\  /    A nd           | Web:      www.OpenFOAM.org                      |
|    \\/     M anipulation  |                                                 |
\*---------------------------------------------------------------------------*/
FoamFile
{
    version     2.0;
    format      ascii;
    class       dictionary;
    location    "constant";
    object      dynamicMeshDict;
}
// * * * * * * * * * * * * * * * * * * * * * * * * * * * * * * * * * * * * * //

dynamicFvMesh dynamicArbitraryFvMesh;

cellzone dom;

amplitude 0;
frequency 0;
refPlaneX 0;

/*
dynamicFvMesh   dynamicMotionSolverFvMesh;

motionSolver    solidBody;

cellZone        rotor;

solidBodyMotionFunction  rotatingMotion;

origin        (0 0 0);
axis          (0 0 1);
omega         20;// // rad/s
*/

// ************************************************************************* //
