/*--------------------------------*- C++ -*----------------------------------*\
  =========                 |
  \\      /  F ield         | OpenFOAM: The Open Source CFD Toolbox
   \\    /   O peration     | Website:  https://openfoam.org
    \\  /    A nd           | Version:  6
     \\/     M anipulation  |
\*---------------------------------------------------------------------------*/
FoamFile
{
    version     2.0;
    format      ascii;
    class       polyBoundaryMesh;
    location    "constant/polyMesh";
    object      boundary;
}
// * * * * * * * * * * * * * * * * * * * * * * * * * * * * * * * * * * * * * //

7
(
    inlet
    {
        type            patch;
        nFaces          0;
        startFace       846;
    }
    outlet
    {
        type            patch;
        nFaces          0;
        startFace       846;
    }
    side1
    {
        type            cyclicAMI;
        inGroups        1(cyclicAMI);
        nFaces          76;
        startFace       846;
        matchTolerance  0.0001;
        transform       rotational;
        neighbourPatch  side2;
        rotationAxis    (1 0 0);
        rotationCentre  (0 0 0);
        method          faceAreaWeightAMI;
    }
    side2
    {
        type            cyclicAMI;
        inGroups        1(cyclicAMI);
        nFaces          52;
        startFace       922;
        matchTolerance  0.0001;
        transform       rotational;
        neighbourPatch  side1;
        rotationAxis    (1 0 0);
        rotationCentre  (0 0 0);
        method          faceAreaWeightAMI;
    }
    walls
    {
        type            wall;
        inGroups        1(wall);
        nFaces          48;
        startFace       974;
    }
    procBoundary0to1
    {
        type            processor;
        inGroups        1(processor);
        nFaces          38;
        startFace       1022;
        matchTolerance  0.0001;
        transform       unknown;
        myProcNo        0;
        neighbProcNo    1;
    }
    procBoundary0to4
    {
        type            processor;
        inGroups        1(processor);
        nFaces          28;
        startFace       1060;
        matchTolerance  0.0001;
        transform       unknown;
        myProcNo        0;
        neighbProcNo    4;
    }
)

// ************************************************************************* //
