/*--------------------------------*- C++ -*----------------------------------*\
  =========                 |
  \\      /  F ield         | OpenFOAM: The Open Source CFD Toolbox
   \\    /   O peration     | Website:  https://openfoam.org
    \\  /    A nd           | Version:  6
     \\/     M anipulation  |
\*---------------------------------------------------------------------------*/
FoamFile
{
    version     2.0;
    format      ascii;
    class       polyBoundaryMesh;
    location    "constant/polyMesh";
    object      boundary;
}
// * * * * * * * * * * * * * * * * * * * * * * * * * * * * * * * * * * * * * //

6
(
    inlet
    {
        type            patch;
        nFaces          28;
        startFace       868;
    }
    outlet
    {
        type            patch;
        nFaces          0;
        startFace       896;
    }
    side1
    {
        type            cyclicAMI;
        inGroups        1(cyclicAMI);
        nFaces          84;
        startFace       896;
        matchTolerance  0.0001;
        transform       rotational;
        neighbourPatch  side2;
        rotationAxis    (1 0 0);
        rotationCentre  (0 0 0);
        method          faceAreaWeightAMI;
    }
    side2
    {
        type            cyclicAMI;
        inGroups        1(cyclicAMI);
        nFaces          48;
        startFace       980;
        matchTolerance  0.0001;
        transform       rotational;
        neighbourPatch  side1;
        rotationAxis    (1 0 0);
        rotationCentre  (0 0 0);
        method          faceAreaWeightAMI;
    }
    walls
    {
        type            wall;
        inGroups        1(wall);
        nFaces          52;
        startFace       1028;
    }
    procBoundary1to0
    {
        type            processor;
        inGroups        1(processor);
        nFaces          38;
        startFace       1080;
        matchTolerance  0.0001;
        transform       unknown;
        myProcNo        1;
        neighbProcNo    0;
    }
)

// ************************************************************************* //
