/*--------------------------------*- C++ -*----------------------------------*\
| =========                 |                                                 |
| \\      /  F ield         | foam-extend: Open Source CFD                    |
|  \\    /   O peration     | Version:     4.0                                |
|   \\  /    A nd           | Web:         http://www.foam-extend.org         |
|    \\/     M anipulation  |                                                 |
\*---------------------------------------------------------------------------*/
FoamFile
{
    version     2.0;
    format      ascii;
    class       volScalarField;
    location    "0";
    object      p;
}
// * * * * * * * * * * * * * * * * * * * * * * * * * * * * * * * * * * * * * //

dimensions      [1 -1 -2 0 0 0 0];

internalField   uniform 3;
// #include "init/internalp"

boundaryField
{
    side
    {
      type symmetryPlane;
    }
    inbound
    {
      type fixedValue;
      value uniform 3;
      //type slip;
    }
    outbound
    {
      type slip;
    }
    defaultFaces
    {
      type            empty;//slip;//wall;
    }
}


// ************************************************************************* //
