/*--------------------------------*- C++ -*----------------------------------*\
| =========                 |                                                 |
| \\      /  F ield         | foam-extend: Open Source CFD                    |
|  \\    /   O peration     | Version:     4.0                                |
|   \\  /    A nd           | Web:         http://www.foam-extend.org         |
|    \\/     M anipulation  |                                                 |
\*---------------------------------------------------------------------------*/
FoamFile
{
    version     2.0;
    format      ascii;
    class       volScalarField;
    location    "0";
    object      T;
}
// * * * * * * * * * * * * * * * * * * * * * * * * * * * * * * * * * * * * * //

dimensions      [0 0 0 1 0 0 0];

internalField   uniform 273.15;

boundaryField
{
    inbound
    {
        type            cyclic;
        value           uniform 273.15;
    }
    outbound
    {
        type            cyclic;
        value           uniform 273.15;
    }
    left
    {
      type            empty;//fixedValue;
      //value           uniform 273.15;
    }
    right
    {
      type            empty;//fixedValue;
      //value           uniform 273.15;
    }
    top
    {
        type            fixedValue;
        value           uniform 273.15;
    }
    bottom
    {
        type            fixedValue;
        value           uniform 273.15;
    }
}


// ************************************************************************* //
