/*--------------------------------*- C++ -*----------------------------------*\
  =========                 |
  \\      /  F ield         | OpenFOAM: The Open Source CFD Toolbox
   \\    /   O peration     | Website:  https://openfoam.org
    \\  /    A nd           | Version:  6
     \\/     M anipulation  |
\*---------------------------------------------------------------------------*/
FoamFile
{
    version     2.0;
    format      ascii;
    class       polyBoundaryMesh;
    location    "constant/polyMesh";
    object      boundary;
}
// * * * * * * * * * * * * * * * * * * * * * * * * * * * * * * * * * * * * * //

5
(
    top
    {
        type            cyclic;
	neighbourPatch  bottom;
        nFaces          40;
        startFace       2930;
    }
    inlet
    {
        type            cyclic;
	neighbourPatch  outlet;
        nFaces          30;
        startFace       2970;
    }
    bottom
    {
        type            cyclic;
        neighbourPatch  top;
        nFaces          40;
        startFace       3000;
    }
    outlet
    {
        type            top;
        neighbourPatch  inlet;
        nFaces          30;
        startFace       3040;
    }
    emptyPatches
    {
        type            empty;
        nFaces          1200;
        startFace       3070;
    }
)

// ************************************************************************* //
