/*--------------------------------*- C++ -*----------------------------------*\
  =========                 |
  \\      /  F ield         | OpenFOAM: The Open Source CFD Toolbox
   \\    /   O peration     | Website:  https://openfoam.org
    \\  /    A nd           | Version:  6
     \\/     M anipulation  |
\*---------------------------------------------------------------------------*/
FoamFile
{
    version     2.0;
    format      ascii;
    class       polyBoundaryMesh;
    location    "constant/polyMesh";
    object      boundary;
}
// * * * * * * * * * * * * * * * * * * * * * * * * * * * * * * * * * * * * * //

5
(
    inlet
    {
        type            patch;
        physicalType    patch;
        nFaces          30;
        startFace       4070;
    }
    top
    {
        type            patch;
        physicalType    patch;
        nFaces          40;
        startFace       4100;
    }
    outlet
    {
        type            patch;
        physicalType    patch;
        nFaces          30;
        startFace       4140;
    }
    bottom
    {
        type            patch;
        physicalType    patch;
        nFaces          40;
        startFace       4170;
    }
    sides
    {
        type            patch;
        physicalType    patch;
        nFaces          1200;
        startFace       4210;
    }
)

// ************************************************************************* //
