/*--------------------------------*- C++ -*----------------------------------*\
  =========                 |
  \\      /  F ield         | OpenFOAM: The Open Source CFD Toolbox
   \\    /   O peration     | Website:  https://openfoam.org
    \\  /    A nd           | Version:  6
     \\/     M anipulation  |
\*---------------------------------------------------------------------------*/
FoamFile
{
    version     2.0;
    format      ascii;
    class       polyBoundaryMesh;
    location    "0.0001/polyMesh";
    object      boundary;
}
// * * * * * * * * * * * * * * * * * * * * * * * * * * * * * * * * * * * * * //

5
(
    emptyPatches_empt
    {
        type            empty;
        inGroups        1(empty);
        nFaces          4800;
        startFace       12538;
    }
    top_cyc
    {
        type            cyclic;
        inGroups        1(cyclic);
        nFaces          158;
        startFace       17338;
        matchTolerance  0.0001;
        transform       unknown;
        neighbourPatch  bottom_cyc;
    }
    bottom_cyc
    {
        type            cyclic;
        inGroups        1(cyclic);
        nFaces          158;
        startFace       17496;
        matchTolerance  0.0001;
        transform       unknown;
        neighbourPatch  top_cyc;
    }
    inlet_cyc
    {
        type            cyclic;
        inGroups        1(cyclic);
        nFaces          116;
        startFace       17654;
        matchTolerance  0.0001;
        transform       unknown;
        neighbourPatch  outlet_cyc;
    }
    outlet_cyc
    {
        type            cyclic;
        inGroups        1(cyclic);
        nFaces          116;
        startFace       17770;
        matchTolerance  0.0001;
        transform       unknown;
        neighbourPatch  inlet_cyc;
    }
)

// ************************************************************************* //
