File Edit Options Buffers Tools C++ Help                                                                                                                                   
/*--------------------------------*- C++ -*----------------------------------*\                                                                                            
  =========                 |                                                                                                                                              
  \\      /  F ield         | OpenFOAM: The Open Source CFD Toolbox                                                                                                        
   \\    /   O peration     | Website:  https://openfoam.org                                                                                                               
    \\  /    A nd           | Version:  6                                                                                                                                  
     \\/     M anipulation  |                                                                                                                                              
\*---------------------------------------------------------------------------*/
FoamFile
{
    version     2.0;
    format      ascii;
    class       dictionary;
    location    "constant";
    object      fvOptions;
}
// * * * * * * * * * * * * * * * * * * * * * * * * * * * * * * * * * * * * * //                                                                                            
limitTemperature
{
	type  limitTemperature;
	active  true;
	limitTemperatureCoeffs
	{
		selectionMode all;
		min	      200;
		max	      400;
	}
}


// ************************************************************************* //                                                                                            




