/*--------------------------------*- C++ -*----------------------------------*\
  =========                 |
  \\      /  F ield         | OpenFOAM: The Open Source CFD Toolbox
   \\    /   O peration     | Website:  https://openfoam.org
    \\  /    A nd           | Version:  6
     \\/     M anipulation  |
\*---------------------------------------------------------------------------*/
FoamFile
{
    version     2.0;
    format      ascii;
    class       polyBoundaryMesh;
    location    "constant/polyMesh";
    object      boundary;
}
// * * * * * * * * * * * * * * * * * * * * * * * * * * * * * * * * * * * * * //

7
(
    inlet
    {
        type            patch;
        nFaces          0;
        startFace       857;
    }
    outlet
    {
        type            patch;
        nFaces          0;
        startFace       857;
    }
    side1
    {
        type            cyclicAMI;
        inGroups        1(cyclicAMI);
        nFaces          74;
        startFace       857;
        matchTolerance  0.0001;
        transform       rotational;
        neighbourPatch  side2;
        rotationAxis    (1 0 0);
        rotationCentre  (0 0 0);
        method          faceAreaWeightAMI;
    }
    side2
    {
        type            cyclicAMI;
        inGroups        1(cyclicAMI);
        nFaces          55;
        startFace       931;
        matchTolerance  0.0001;
        transform       rotational;
        neighbourPatch  side1;
        rotationAxis    (1 0 0);
        rotationCentre  (0 0 0);
        method          faceAreaWeightAMI;
    }
    walls
    {
        type            wall;
        inGroups        1(wall);
        nFaces          51;
        startFace       986;
    }
    procBoundary3to2
    {
        type            processor;
        inGroups        1(processor);
        nFaces          38;
        startFace       1037;
        matchTolerance  0.0001;
        transform       unknown;
        myProcNo        3;
        neighbProcNo    2;
    }
    procBoundary3to4
    {
        type            processor;
        inGroups        1(processor);
        nFaces          28;
        startFace       1075;
        matchTolerance  0.0001;
        transform       unknown;
        myProcNo        3;
        neighbProcNo    4;
    }
)

// ************************************************************************* //
