/*--------------------------------*- C++ -*----------------------------------*\
  =========                 |
  \\      /  F ield         | OpenFOAM: The Open Source CFD Toolbox
   \\    /   O peration     | Website:  https://openfoam.org
    \\  /    A nd           | Version:  6
     \\/     M anipulation  |
\*---------------------------------------------------------------------------*/
FoamFile
{
    version     2.0;
    format      ascii;
    class       polyBoundaryMesh;
    location    "constant/polyMesh";
    object      boundary;
}
// * * * * * * * * * * * * * * * * * * * * * * * * * * * * * * * * * * * * * //

9
(
    emptyPatches_empt
    {
        type            empty;
        inGroups        1(empty);
        nFaces          11250;
        startFace       11100;
    }
    top_cyc
    {
        type            cyclic;
        inGroups        1(cyclic);
        nFaces          0;
        startFace       22350;
        matchTolerance  0.0001;
        transform       unknown;
        neighbourPatch  bottom_cyc;
    }
    bottom_cyc
    {
        type            cyclic;
        inGroups        1(cyclic);
        nFaces          0;
        startFace       22350;
        matchTolerance  0.0001;
        transform       unknown;
        neighbourPatch  top_cyc;
    }
    inlet_cyc
    {
        type            cyclic;
        inGroups        1(cyclic);
        nFaces          0;
        startFace       22350;
        matchTolerance  0.0001;
        transform       unknown;
        neighbourPatch  outlet_cyc;
    }
    outlet_cyc
    {
        type            cyclic;
        inGroups        1(cyclic);
        nFaces          0;
        startFace       22350;
        matchTolerance  0.0001;
        transform       unknown;
        neighbourPatch  inlet_cyc;
    }
    procBoundary0to1
    {
        type            processor;
        inGroups        1(processor);
        nFaces          75;
        startFace       22350;
        matchTolerance  0.0001;
        transform       unknown;
        myProcNo        0;
        neighbProcNo    1;
    }
    procBoundary0to1throughinlet_cyc
    {
        type            processorCyclic;
        inGroups        1(processorCyclic);
        nFaces          75;
        startFace       22425;
        matchTolerance  0.0001;
        transform       unknown;
        myProcNo        0;
        neighbProcNo    1;
        referPatch      inlet_cyc;
    }
    procBoundary0to2
    {
        type            processor;
        inGroups        1(processor);
        nFaces          75;
        startFace       22500;
        matchTolerance  0.0001;
        transform       unknown;
        myProcNo        0;
        neighbProcNo    2;
    }
    procBoundary0to2throughbottom_cyc
    {
        type            processorCyclic;
        inGroups        1(processorCyclic);
        nFaces          75;
        startFace       22575;
        matchTolerance  0.0001;
        transform       unknown;
        myProcNo        0;
        neighbProcNo    2;
        referPatch      bottom_cyc;
    }
)

// ************************************************************************* //
